Version 4
SHEET 1 5092 1748
WIRE 1840 -1856 896 -1856
WIRE 1472 -1760 1408 -1760
WIRE 1632 -1760 1472 -1760
WIRE -2704 -1744 -3408 -1744
WIRE 1664 -1728 1568 -1728
WIRE -736 -1712 -1072 -1712
WIRE -576 -1712 -736 -1712
WIRE -2096 -1648 -2272 -1648
WIRE -1936 -1648 -2096 -1648
WIRE 1408 -1648 1408 -1760
WIRE 1408 -1648 1344 -1648
WIRE 1360 -1632 1360 -1712
WIRE 1440 -1632 1360 -1632
WIRE 1456 -1632 1440 -1632
WIRE 1088 -1616 736 -1616
WIRE 1280 -1616 1280 -1712
WIRE 1280 -1616 1168 -1616
WIRE 1296 -1616 1280 -1616
WIRE 1344 -1616 1344 -1648
WIRE 1632 -1616 1632 -1760
WIRE 1296 -1600 1296 -1616
WIRE 1312 -1600 1296 -1600
WIRE 1536 -1600 1536 -1632
WIRE 1568 -1600 1568 -1728
WIRE 1568 -1600 1536 -1600
WIRE 1600 -1600 1568 -1600
WIRE -2272 -1584 -2272 -1648
WIRE -2272 -1584 -2384 -1584
WIRE 1440 -1584 1440 -1632
WIRE 1440 -1584 1376 -1584
WIRE 1744 -1584 1744 -1728
WIRE 1744 -1584 1664 -1584
WIRE 1840 -1584 1840 -1856
WIRE 1840 -1584 1744 -1584
WIRE 1312 -1568 1264 -1568
WIRE 1600 -1568 1568 -1568
WIRE -3600 -1552 -3600 -1584
WIRE -2704 -1552 -2704 -1744
WIRE -2112 -1552 -2144 -1552
WIRE -1104 -1552 -1280 -1552
WIRE 1344 -1504 1344 -1552
WIRE 1632 -1504 1632 -1552
WIRE 1968 -1504 1696 -1504
WIRE -2384 -1488 -2384 -1584
WIRE -2560 -1472 -2704 -1472
WIRE -2448 -1472 -2448 -1632
WIRE -2448 -1472 -2480 -1472
WIRE -2416 -1472 -2448 -1472
WIRE -1936 -1472 -1936 -1648
WIRE -1936 -1472 -2096 -1472
WIRE -2304 -1456 -2304 -1632
WIRE -2304 -1456 -2352 -1456
WIRE -2256 -1456 -2304 -1456
WIRE -2144 -1456 -2144 -1552
WIRE -2144 -1456 -2176 -1456
WIRE -2128 -1456 -2144 -1456
WIRE -1280 -1456 -1280 -1472
WIRE -1232 -1456 -1280 -1456
WIRE -1104 -1456 -1104 -1552
WIRE -960 -1456 -1104 -1456
WIRE 1456 -1456 1440 -1456
WIRE 1536 -1456 1536 -1600
WIRE -2416 -1440 -2448 -1440
WIRE -2032 -1440 -2032 -1552
WIRE -2032 -1440 -2064 -1440
WIRE -1952 -1440 -2032 -1440
WIRE -1280 -1440 -1280 -1456
WIRE -3600 -1424 -3600 -1552
WIRE -3408 -1424 -3408 -1744
WIRE -3408 -1424 -3600 -1424
WIRE -2128 -1424 -2144 -1424
WIRE -384 -1424 -448 -1424
WIRE -288 -1424 -384 -1424
WIRE 1792 -1424 1712 -1424
WIRE -2384 -1408 -2384 -1424
WIRE -2368 -1408 -2384 -1408
WIRE -1072 -1408 -1072 -1712
WIRE -1232 -1392 -1232 -1456
WIRE -1104 -1392 -1232 -1392
WIRE 1440 -1392 1440 -1456
WIRE 1696 -1392 1696 -1504
WIRE 1696 -1392 1440 -1392
WIRE 1792 -1392 1792 -1424
WIRE -2704 -1376 -2704 -1392
WIRE -960 -1376 -960 -1456
WIRE -960 -1376 -1040 -1376
WIRE -928 -1376 -960 -1376
WIRE 1264 -1376 1264 -1568
WIRE 1264 -1376 1232 -1376
WIRE -2448 -1360 -2448 -1440
WIRE -2096 -1360 -2096 -1408
WIRE -1280 -1360 -1280 -1376
WIRE -1232 -1360 -1280 -1360
WIRE -1104 -1360 -1168 -1360
WIRE -2304 -1328 -2304 -1456
WIRE -2144 -1328 -2144 -1424
WIRE -1072 -1328 -1072 -1344
WIRE -208 -1328 -208 -1424
WIRE -208 -1328 -336 -1328
WIRE -176 -1328 -208 -1328
WIRE 1264 -1328 1264 -1376
WIRE 1568 -1328 1568 -1568
WIRE 1568 -1328 1264 -1328
WIRE -1168 -1296 -1168 -1360
WIRE -1152 -1296 -1168 -1296
WIRE -960 -1296 -960 -1376
WIRE -960 -1296 -1072 -1296
WIRE -3600 -1280 -3600 -1424
WIRE -544 -1280 -608 -1280
WIRE -448 -1280 -448 -1424
WIRE -448 -1280 -544 -1280
WIRE 1712 -1280 1712 -1424
WIRE -384 -1264 -384 -1360
WIRE 144 -1264 144 -1328
WIRE 144 -1264 -384 -1264
WIRE 896 -1264 896 -1856
WIRE 1408 -1264 896 -1264
WIRE 1632 -1264 1536 -1264
WIRE 1792 -1264 1792 -1312
WIRE 1968 -1264 1968 -1504
WIRE 1968 -1264 1792 -1264
WIRE 2592 -1264 2400 -1264
WIRE 2688 -1264 2592 -1264
WIRE -2448 -1248 -2448 -1360
WIRE -2304 -1248 -2448 -1248
WIRE -768 -1248 -816 -1248
WIRE 1536 -1248 1536 -1264
WIRE -768 -1232 -768 -1248
WIRE -3120 -1216 -3600 -1216
WIRE -1232 -1216 -1232 -1360
WIRE -1168 -1216 -1232 -1216
WIRE 1632 -1216 1632 -1264
WIRE 1712 -1216 1712 -1280
WIRE 1712 -1216 1632 -1216
WIRE -1952 -1200 -1952 -1440
WIRE -1936 -1200 -1952 -1200
WIRE -544 -1200 -544 -1216
WIRE -544 -1200 -672 -1200
WIRE -384 -1200 -384 -1264
WIRE -384 -1200 -544 -1200
WIRE -256 -1200 -320 -1200
WIRE -160 -1200 -256 -1200
WIRE 1792 -1200 1792 -1264
WIRE -2144 -1184 -2144 -1328
WIRE -1936 -1184 -1936 -1200
WIRE -576 -1168 -672 -1168
WIRE -320 -1168 -320 -1200
WIRE -320 -1168 -512 -1168
WIRE 2400 -1168 2400 -1184
WIRE 1536 -1152 1536 -1168
WIRE -256 -1136 -320 -1136
WIRE 2400 -1136 2400 -1168
WIRE -3600 -1120 -3600 -1136
WIRE -3424 -1120 -3600 -1120
WIRE -3312 -1120 -3312 -1168
WIRE -3312 -1120 -3424 -1120
WIRE -3232 -1120 -3312 -1120
WIRE -3120 -1120 -3120 -1216
WIRE -3120 -1120 -3184 -1120
WIRE -1392 -1120 -1456 -1120
WIRE -80 -1104 -80 -1200
WIRE -80 -1104 -272 -1104
WIRE -48 -1104 -80 -1104
WIRE -512 -1088 -512 -1104
WIRE -512 -1088 -672 -1088
WIRE -320 -1088 -320 -1136
WIRE -320 -1088 -512 -1088
WIRE -1392 -1072 -1392 -1120
WIRE -1392 -1072 -1456 -1072
WIRE 2560 -1072 2400 -1072
WIRE 2640 -1072 2560 -1072
WIRE -1392 -1056 -1392 -1072
WIRE 1536 -1056 1536 -1072
WIRE 1600 -1056 1536 -1056
WIRE 1792 -1056 1792 -1120
WIRE 1792 -1056 1712 -1056
WIRE -3312 -1040 -3312 -1120
WIRE -3232 -1040 -3232 -1120
WIRE -1536 -1024 -1536 -1120
WIRE -928 -1024 -928 -1376
WIRE -928 -1024 -1536 -1024
WIRE 1536 -1024 1536 -1056
WIRE 1712 -1024 1712 -1056
WIRE -320 -992 -320 -1088
WIRE 272 -992 272 -1104
WIRE 272 -992 -320 -992
WIRE -3600 -976 -3600 -1056
WIRE -3600 -976 -3776 -976
WIRE 1280 -976 1280 -1232
WIRE -1024 -960 -1392 -960
WIRE -816 -960 -816 -1248
WIRE -816 -960 -1024 -960
WIRE 2400 -960 2400 -992
WIRE 2400 -960 2336 -960
WIRE -3600 -944 -3600 -976
WIRE -3312 -944 -3312 -976
WIRE -3312 -944 -3600 -944
WIRE -3232 -944 -3232 -976
WIRE -3232 -944 -3312 -944
WIRE -272 -944 -272 -1104
WIRE -272 -944 -304 -944
WIRE 2336 -944 2336 -960
WIRE -3776 -912 -3776 -976
WIRE -240 -912 -480 -912
WIRE 64 -912 -240 -912
WIRE 1280 -896 1280 -976
WIRE -3312 -880 -3312 -944
WIRE 1536 -880 1536 -944
WIRE 1600 -880 1600 -1056
WIRE 1600 -880 1584 -880
WIRE -3232 -864 -3232 -944
WIRE -384 -848 -384 -1200
WIRE -384 -848 -480 -848
WIRE -2224 -832 -2320 -832
WIRE -2192 -832 -2224 -832
WIRE -336 -832 -336 -1328
WIRE -336 -832 -432 -832
WIRE 1632 -832 1632 -1216
WIRE 1584 -816 1584 -880
WIRE 1600 -816 1584 -816
WIRE 3216 -816 2752 -816
WIRE -1840 -800 -1840 -1040
WIRE 1728 -800 1664 -800
WIRE -240 -784 -240 -912
WIRE 1600 -784 1568 -784
WIRE -3600 -768 -3600 -880
WIRE -3312 -768 -3312 -816
WIRE -3312 -768 -3600 -768
WIRE -3232 -768 -3232 -800
WIRE -3232 -768 -3312 -768
WIRE 736 -768 736 -1616
WIRE 1280 -768 1280 -816
WIRE 1280 -768 736 -768
WIRE 2336 -768 2336 -848
WIRE -3120 -752 -3120 -1120
WIRE -3600 -736 -3600 -768
WIRE -2320 -736 -2320 -832
WIRE -2272 -736 -2320 -736
WIRE -1936 -736 -1936 -1104
WIRE -1760 -736 -1856 -736
WIRE -32 -736 -32 -816
WIRE 1280 -736 1280 -768
WIRE 1280 -736 1136 -736
WIRE 2752 -736 2752 -816
WIRE 1280 -720 1280 -736
WIRE -3776 -704 -3776 -912
WIRE -304 -704 -304 -944
WIRE -288 -704 -304 -704
WIRE -320 -688 -320 -992
WIRE -240 -688 -320 -688
WIRE 1632 -688 1632 -768
WIRE 2752 -688 2752 -736
WIRE 3152 -688 3024 -688
WIRE -2272 -672 -2320 -672
WIRE -2176 -672 -2272 -672
WIRE -1936 -672 -1936 -736
WIRE -1936 -672 -2096 -672
WIRE 2080 -672 2080 -688
WIRE 480 -656 480 -704
WIRE 544 -656 544 -704
WIRE -3120 -640 -3120 -672
WIRE -1840 -640 -1840 -800
WIRE -2320 -624 -2320 -672
WIRE -1936 -624 -1936 -672
WIRE -1872 -624 -1936 -624
WIRE -768 -624 -768 -1152
WIRE -768 -624 -1296 -624
WIRE 1136 -624 1136 -736
WIRE -1760 -608 -1760 -736
WIRE -1760 -608 -1808 -608
WIRE -1712 -608 -1760 -608
WIRE -1392 -608 -1392 -960
WIRE -1392 -608 -1712 -608
WIRE -768 -608 -768 -624
WIRE -480 -608 -480 -752
WIRE -240 -608 -240 -624
WIRE -240 -608 -480 -608
WIRE -192 -608 -240 -608
WIRE 480 -608 480 -656
WIRE 544 -608 544 -656
WIRE -1968 -592 -2048 -592
WIRE -1872 -592 -1968 -592
WIRE -1296 -592 -1296 -624
WIRE -1296 -592 -1328 -592
WIRE -240 -592 -240 -608
WIRE 2080 -592 2080 -672
WIRE 2832 -592 2800 -592
WIRE 3120 -592 3024 -592
WIRE 1280 -576 1280 -640
WIRE -32 -560 -32 -736
WIRE 480 -560 480 -608
WIRE 544 -560 544 -608
WIRE -1840 -544 -1840 -576
WIRE -192 -544 -192 -608
WIRE -96 -544 -192 -544
WIRE -64 -544 -96 -544
WIRE 2752 -544 2560 -544
WIRE 2800 -544 2800 -592
WIRE 2800 -544 2752 -544
WIRE -240 -528 -304 -528
WIRE 64 -528 64 -912
WIRE 64 -528 0 -528
WIRE 96 -528 64 -528
WIRE 144 -528 144 -864
WIRE 144 -528 96 -528
WIRE 1408 -528 1408 -1264
WIRE 1456 -528 1408 -528
WIRE 1568 -528 1568 -784
WIRE 1568 -528 1536 -528
WIRE 1648 -528 1568 -528
WIRE 1728 -528 1728 -800
WIRE 1776 -528 1728 -528
WIRE 1904 -528 1856 -528
WIRE 2016 -528 1904 -528
WIRE 4240 -528 4144 -528
WIRE 4336 -528 4240 -528
WIRE -240 -512 -240 -528
WIRE -64 -512 -128 -512
WIRE 480 -512 480 -560
WIRE 544 -512 544 -560
WIRE 2016 -512 2016 -528
WIRE 2032 -512 2016 -512
WIRE -2320 -496 -2320 -544
WIRE -1712 -496 -1712 -528
WIRE -1616 -496 -1712 -496
WIRE -1712 -480 -1712 -496
WIRE -32 -480 -32 -496
WIRE 480 -480 480 -512
WIRE 544 -480 544 -512
WIRE 1136 -480 1136 -560
WIRE 1280 -480 1280 -496
WIRE 1280 -480 1136 -480
WIRE -1616 -464 -1616 -496
WIRE 1280 -464 1280 -480
WIRE 4144 -464 4112 -464
WIRE 4176 -464 4144 -464
WIRE -128 -448 -128 -512
WIRE -112 -448 -128 -448
WIRE 64 -448 64 -528
WIRE 64 -448 -32 -448
WIRE 480 -448 480 -480
WIRE 544 -448 544 -480
WIRE 2080 -448 2080 -496
WIRE 2080 -448 2032 -448
WIRE 4112 -448 4112 -464
WIRE 4176 -448 4176 -464
WIRE 4336 -432 4336 -448
WIRE -128 -416 -128 -448
WIRE 1904 -416 1904 -528
WIRE 2032 -416 2032 -448
WIRE 2032 -416 1984 -416
WIRE -1648 -400 -1712 -400
WIRE -1616 -400 -1648 -400
WIRE 480 -400 480 -448
WIRE 544 -400 544 -448
WIRE 2080 -400 2080 -448
WIRE 4336 -400 4336 -432
WIRE 4336 -400 4320 -400
WIRE 480 -368 480 -400
WIRE 544 -368 544 -400
WIRE 4240 -368 4240 -464
WIRE 4368 -368 4240 -368
WIRE 224 -352 128 -352
WIRE 320 -352 224 -352
WIRE -1328 -336 -1328 -592
WIRE -304 -336 -304 -528
WIRE -128 -336 -304 -336
WIRE 4176 -336 4176 -384
WIRE 4352 -336 4176 -336
WIRE -1456 -320 -1456 -1072
WIRE -1456 -320 -1520 -320
WIRE 480 -320 480 -368
WIRE 544 -320 544 -368
WIRE 3728 -320 3696 -320
WIRE 3744 -320 3728 -320
WIRE 3776 -320 3744 -320
WIRE 3968 -320 3776 -320
WIRE 4112 -320 4112 -384
WIRE 4112 -320 3968 -320
WIRE 4192 -320 4112 -320
WIRE 4320 -320 4320 -400
WIRE 4320 -320 4192 -320
WIRE -1456 -288 -1456 -320
WIRE -1392 -288 -1456 -288
WIRE 128 -288 96 -288
WIRE 160 -288 128 -288
WIRE 96 -272 96 -288
WIRE 160 -272 160 -288
WIRE 480 -272 480 -320
WIRE 544 -272 544 -320
WIRE 320 -256 320 -272
WIRE -1648 -240 -1648 -400
WIRE -1648 -240 -1696 -240
WIRE -1520 -240 -1648 -240
WIRE -1328 -240 -1520 -240
WIRE -1296 -240 -1296 -512
WIRE -1296 -240 -1328 -240
WIRE 3920 -240 3568 -240
WIRE 4144 -240 4064 -240
WIRE 4352 -240 4352 -336
WIRE 4352 -240 4320 -240
WIRE 4496 -240 4352 -240
WIRE 4592 -240 4496 -240
WIRE 480 -224 480 -272
WIRE 544 -224 544 -272
WIRE 3776 -224 3776 -320
WIRE 320 -208 320 -256
WIRE 3968 -208 3968 -224
WIRE 4592 -208 4592 -240
WIRE -224 -192 -224 -224
WIRE -144 -192 -144 -224
WIRE 224 -192 224 -288
WIRE 352 -192 224 -192
WIRE 3968 -192 3968 -208
WIRE 4032 -192 4032 -224
WIRE 4032 -192 3968 -192
WIRE 4048 -192 4032 -192
WIRE 4320 -192 4320 -240
WIRE 4320 -192 4048 -192
WIRE 480 -176 480 -224
WIRE 544 -176 544 -224
WIRE 1760 -176 1712 -176
WIRE 1920 -176 1760 -176
WIRE 1984 -176 1984 -256
WIRE 1984 -176 1920 -176
WIRE 2064 -176 1984 -176
WIRE 2160 -176 2064 -176
WIRE 2224 -176 2160 -176
WIRE 2704 -176 2624 -176
WIRE 2752 -176 2704 -176
WIRE 2848 -176 2832 -176
WIRE 3152 -176 3152 -688
WIRE 3152 -176 3040 -176
WIRE 3968 -176 3968 -192
WIRE 3968 -176 3856 -176
WIRE 4192 -176 4192 -224
WIRE 4224 -176 4192 -176
WIRE 160 -160 160 -208
WIRE 336 -160 160 -160
WIRE 4192 -160 4192 -176
WIRE 4272 -160 4272 -224
WIRE 4272 -160 4192 -160
WIRE 4304 -160 4272 -160
WIRE -272 -144 -288 -144
WIRE -240 -144 -272 -144
WIRE -224 -144 -224 -192
WIRE -224 -144 -240 -144
WIRE -144 -144 -144 -192
WIRE -48 -144 -144 -144
WIRE 16 -144 -48 -144
WIRE 96 -144 96 -208
WIRE 96 -144 16 -144
WIRE 176 -144 96 -144
WIRE 256 -144 176 -144
WIRE 3968 -144 3968 -176
WIRE 4048 -144 4048 -192
WIRE 4192 -144 4192 -160
WIRE 480 -128 480 -176
WIRE 544 -128 544 -176
WIRE 3728 -128 3728 -320
WIRE 3840 -128 3728 -128
WIRE 4304 -112 4304 -160
WIRE 4496 -112 4496 -160
WIRE 4496 -112 4304 -112
WIRE 4592 -112 4592 -144
WIRE 4592 -112 4496 -112
WIRE -224 -96 -224 -144
WIRE -144 -96 -144 -144
WIRE 992 -96 944 -96
WIRE 1376 -96 1280 -96
WIRE -144 -80 -144 -96
WIRE 992 -80 992 -96
WIRE 1280 -80 1280 -96
WIRE 1760 -80 1760 -112
WIRE 1760 -80 1472 -80
WIRE 2784 -80 2752 -80
WIRE 2848 -80 2784 -80
WIRE 3072 -80 3040 -80
WIRE -96 -64 -448 -64
WIRE 128 -64 48 -64
WIRE 336 -64 336 -160
WIRE 336 -64 304 -64
WIRE 368 -64 336 -64
WIRE 480 -64 480 -128
WIRE 480 -64 448 -64
WIRE 544 -64 544 -128
WIRE 560 -64 544 -64
WIRE 768 -64 560 -64
WIRE 1136 -64 1040 -64
WIRE 1232 -64 1136 -64
WIRE 3152 -64 3152 -176
WIRE 3232 -64 3152 -64
WIRE 3920 -64 3888 -64
WIRE 4144 -64 4112 -64
WIRE -240 -48 -240 -144
WIRE 3776 -48 3776 -144
WIRE 3968 -48 3776 -48
WIRE 4144 -48 3968 -48
WIRE 4192 -48 4144 -48
WIRE 4288 -48 4288 -64
WIRE 4288 -48 4192 -48
WIRE 4368 -48 4368 -368
WIRE 4368 -48 4288 -48
WIRE -48 -32 -48 -48
WIRE 208 -32 208 -64
WIRE 208 -32 80 -32
WIRE -48 -16 -48 -32
WIRE 16 -16 16 -48
WIRE 16 -16 -48 -16
WIRE 32 -16 16 -16
WIRE 304 -16 304 -64
WIRE 304 -16 32 -16
WIRE 3888 -16 3888 -64
WIRE 3888 -16 3456 -16
WIRE 4432 -16 4432 -48
WIRE -1296 0 -1568 0
WIRE -1184 0 -1296 0
WIRE -48 0 -48 -16
WIRE -48 0 -160 0
WIRE 176 0 176 -48
WIRE 320 0 176 0
WIRE 560 0 560 -64
WIRE 3856 0 3856 -176
WIRE 3856 0 3248 0
WIRE 4064 0 4064 -240
WIRE 4064 0 3984 0
WIRE 4432 0 4432 -16
WIRE -32 16 -32 -64
WIRE -32 16 -144 16
WIRE 176 16 176 0
WIRE 256 16 256 -48
WIRE 256 16 176 16
WIRE 272 16 256 16
WIRE 288 16 272 16
WIRE 3072 16 3072 -80
WIRE 3776 16 3072 16
WIRE 4144 16 4144 -48
WIRE 4192 16 4144 16
WIRE -48 32 -48 0
WIRE 32 32 32 -16
WIRE 176 32 176 16
WIRE 1136 32 1136 -64
WIRE 1136 32 1040 32
WIRE 1232 32 1136 32
WIRE 1920 32 1920 -112
WIRE 1920 32 1552 32
WIRE 2912 32 2736 32
WIRE 3120 32 3120 -592
WIRE 3760 32 3120 32
WIRE 4320 32 4272 32
WIRE -288 48 -288 -144
WIRE -176 48 -288 48
WIRE 2736 48 2736 32
WIRE 3424 48 3296 48
WIRE 3568 48 3568 -240
WIRE 3568 48 3424 48
WIRE 3696 48 3696 -320
WIRE 3696 48 3632 48
WIRE 4064 48 4064 0
WIRE 4192 48 4192 16
WIRE 4208 48 4192 48
WIRE 1040 64 1040 32
WIRE 1136 64 1136 32
WIRE 1232 64 1232 32
WIRE 3424 64 3424 48
WIRE 3424 64 3344 64
WIRE 3728 64 3728 -128
WIRE 3728 64 3488 64
WIRE -144 80 -144 16
WIRE -144 80 -368 80
WIRE 288 80 288 16
WIRE 512 80 288 80
WIRE 560 80 512 80
WIRE 768 80 560 80
WIRE 848 80 848 -64
WIRE 864 80 848 80
WIRE 992 80 992 0
WIRE 992 80 864 80
WIRE 1280 80 1280 0
WIRE 1440 80 1280 80
WIRE 1472 80 1472 -80
WIRE 1472 80 1440 80
WIRE 4112 80 4112 -64
WIRE 4272 80 4272 32
WIRE 4272 80 4112 80
WIRE -160 96 -160 0
WIRE -160 96 -752 96
WIRE 2912 96 2912 32
WIRE 3120 96 3120 32
WIRE 3120 96 2912 96
WIRE 4112 96 4112 80
WIRE 4192 96 4112 96
WIRE -448 112 -448 -64
WIRE -96 112 -128 112
WIRE 128 112 96 112
WIRE 1760 112 1760 -80
WIRE 1920 112 1920 32
WIRE -240 128 -240 32
WIRE -48 128 -240 128
WIRE 32 128 -48 128
WIRE 176 128 32 128
WIRE 272 128 272 112
WIRE 272 128 176 128
WIRE 352 128 352 -192
WIRE 352 128 272 128
WIRE 768 128 768 80
WIRE 944 128 944 -96
WIRE 944 128 768 128
WIRE 992 128 944 128
WIRE 1376 128 1376 -96
WIRE 1376 128 1280 128
WIRE 1552 128 1552 32
WIRE 1552 128 1376 128
WIRE 3072 128 3072 16
WIRE 3072 128 2896 128
WIRE -1568 144 -1568 0
WIRE -368 144 -368 80
WIRE 96 144 96 112
WIRE 144 144 96 144
WIRE 224 144 224 96
WIRE 3552 144 3520 144
WIRE 4176 144 3600 144
WIRE -128 160 -128 112
WIRE -96 160 -128 160
WIRE -16 160 -16 112
WIRE 80 160 80 -32
WIRE 144 160 144 144
WIRE 1040 160 1040 144
WIRE 1136 160 1136 144
WIRE 1232 160 1232 144
WIRE 2848 160 2512 160
WIRE 3232 160 3232 -64
WIRE 3232 160 2848 160
WIRE 3520 160 3520 144
WIRE 3520 160 3232 160
WIRE 3744 160 3520 160
WIRE 4208 160 4208 48
WIRE 4432 160 4208 160
WIRE -96 176 -96 160
WIRE 48 176 48 -64
WIRE 272 176 272 128
WIRE 464 176 432 176
WIRE 512 176 512 144
WIRE 512 176 464 176
WIRE 1760 176 1728 176
WIRE 1920 176 1760 176
WIRE 2048 176 1920 176
WIRE 2160 176 2160 -112
WIRE 2160 176 2048 176
WIRE 2224 176 2224 -112
WIRE 2224 176 2160 176
WIRE 3488 176 3488 144
WIRE 3488 176 3440 176
WIRE 3600 176 3600 144
WIRE 3600 176 3584 176
WIRE 3632 176 3632 128
WIRE 3712 176 3632 176
WIRE 4064 176 4064 128
WIRE 4128 176 4064 176
WIRE 3344 192 3344 144
WIRE 3344 192 3280 192
WIRE 3632 192 3632 176
WIRE 3712 192 3712 176
WIRE 4432 192 4432 160
WIRE 2048 208 2048 176
WIRE 2784 208 2640 208
WIRE -448 224 -448 192
WIRE -448 224 -720 224
WIRE 224 224 176 224
WIRE 4432 224 4432 192
WIRE 2912 240 2912 96
WIRE 2928 240 2912 240
WIRE 3280 240 3280 192
WIRE 3280 240 3232 240
WIRE 3344 240 3296 240
WIRE 3408 240 3344 240
WIRE 4256 240 4208 240
WIRE 4336 240 4256 240
WIRE 320 256 320 0
WIRE 320 256 208 256
WIRE 2640 256 2640 208
WIRE 3776 256 3776 16
WIRE 3808 256 3776 256
WIRE 4128 256 4128 176
WIRE 4128 256 4112 256
WIRE 3344 272 3344 240
WIRE 3440 272 3440 240
WIRE 3488 272 3488 256
WIRE 3488 272 3440 272
WIRE 3488 288 3488 272
WIRE 4336 288 4336 240
WIRE 2448 304 2448 240
WIRE 2784 304 2784 208
WIRE 2896 304 2896 128
WIRE 2896 304 2784 304
WIRE 2928 304 2896 304
WIRE 3296 304 3296 240
WIRE 3296 304 3232 304
WIRE 3632 304 3632 272
WIRE 3712 304 3712 256
WIRE 3712 304 3632 304
WIRE 2448 320 2448 304
WIRE 3632 320 3632 304
WIRE 3760 320 3760 32
WIRE 3808 320 3760 320
WIRE 4208 320 4208 240
WIRE 4208 320 4112 320
WIRE -368 336 -368 224
WIRE -368 336 -688 336
WIRE -16 336 -16 240
WIRE -16 336 -64 336
WIRE 3408 336 3408 240
WIRE -1568 352 -1568 224
WIRE -1536 352 -1568 352
WIRE -1456 352 -1536 352
WIRE -1168 352 -1264 352
WIRE 4352 352 4336 352
WIRE 2848 368 2848 160
WIRE 2896 368 2848 368
WIRE 2928 368 2896 368
WIRE 3248 368 3248 0
WIRE 3248 368 3232 368
WIRE -288 384 -288 48
WIRE -288 384 -560 384
WIRE 3744 384 3744 160
WIRE 3776 384 3744 384
WIRE 3808 384 3776 384
WIRE 4224 384 4224 -176
WIRE 4224 384 4112 384
WIRE 4224 416 4224 384
WIRE 4352 416 4352 352
WIRE 4352 416 4224 416
WIRE 3248 432 3248 368
WIRE 3408 432 3408 400
WIRE 3408 432 3248 432
WIRE 3600 432 3600 176
WIRE -1456 448 -1488 448
WIRE -1200 448 -1264 448
WIRE 2448 448 2448 400
WIRE 2512 448 2512 160
WIRE 2512 448 2448 448
WIRE 2896 448 2896 432
WIRE 2928 448 2896 448
WIRE 3280 448 3232 448
WIRE 3344 448 3344 416
WIRE 3344 448 3280 448
WIRE 3584 448 3584 176
WIRE 3584 448 3344 448
WIRE 2448 464 2448 448
WIRE 2896 464 2896 448
WIRE 3776 464 3776 448
WIRE 3808 464 3776 464
WIRE 4160 464 4112 464
WIRE 4176 464 4176 144
WIRE 4176 464 4160 464
WIRE 4256 464 4256 384
WIRE 4256 464 4176 464
WIRE -1488 480 -1488 448
WIRE 2848 480 2656 464
WIRE 3440 480 3328 480
WIRE 3456 480 3456 -16
WIRE 3456 480 3440 480
WIRE 3776 480 3776 464
WIRE 3440 496 3440 480
WIRE 4192 496 4192 96
WIRE 2848 512 2848 480
WIRE 2928 512 2848 512
WIRE 3248 512 3232 512
WIRE 3280 512 3248 512
WIRE 3600 512 3600 432
WIRE 3248 528 3248 512
WIRE 3808 528 3680 528
WIRE 4128 528 4112 528
WIRE 4160 528 4128 528
WIRE 2656 544 2656 464
WIRE 4128 544 4128 528
WIRE 2928 576 2832 576
WIRE 3328 576 3328 560
WIRE 3328 576 3232 576
WIRE -752 592 -752 96
WIRE -752 592 -1040 592
WIRE 144 592 144 240
WIRE 176 592 176 224
WIRE 176 592 144 592
WIRE 2832 592 2832 576
WIRE 3808 592 3760 592
WIRE 4192 592 4192 576
WIRE 4192 592 4112 592
WIRE -96 608 -96 256
WIRE -64 608 -64 336
WIRE -64 608 -96 608
WIRE 48 608 48 256
WIRE 80 608 80 240
WIRE 80 608 48 608
WIRE 3680 608 3680 528
WIRE -1472 640 -1520 640
WIRE -1168 640 -1168 352
WIRE -1168 640 -1280 640
WIRE -1520 688 -1520 640
WIRE -720 688 -720 224
WIRE -688 688 -688 336
WIRE -688 688 -720 688
WIRE 2448 688 2448 528
WIRE -1536 736 -1536 352
WIRE -1472 736 -1536 736
WIRE -1216 736 -1280 736
WIRE -1168 752 -1168 640
WIRE -1120 752 -1168 752
WIRE -96 768 -96 608
WIRE -96 768 -448 768
WIRE 48 816 48 608
WIRE 48 816 -224 816
WIRE -1200 928 -1200 448
WIRE -1200 928 -1376 928
WIRE -448 928 -448 768
WIRE -448 928 -832 928
WIRE -224 944 -224 816
WIRE -224 944 -304 944
WIRE -1968 960 -1968 896
WIRE -1216 960 -1216 736
WIRE -512 960 -1216 960
WIRE -1968 976 -1968 960
WIRE -1376 976 -1376 928
WIRE -1376 976 -1552 976
WIRE -528 976 -1168 976
WIRE -1552 992 -1552 976
WIRE -864 992 -992 992
WIRE -720 992 -720 688
WIRE -720 992 -864 992
WIRE -560 992 -560 384
WIRE -560 992 -656 992
WIRE -224 992 -224 944
WIRE -864 1008 -864 992
WIRE -864 1008 -944 1008
WIRE -560 1008 -560 992
WIRE -560 1008 -800 1008
WIRE 208 1024 208 256
WIRE 208 1024 -64 1024
WIRE -1376 1040 -1376 976
WIRE -1168 1040 -1168 976
WIRE -1168 1040 -1376 1040
WIRE -1216 1072 -1216 960
WIRE -1216 1072 -1392 1072
WIRE -736 1088 -768 1088
WIRE -112 1088 -688 1088
WIRE -1968 1104 -1968 1056
WIRE -1824 1104 -1968 1104
WIRE -1440 1104 -1824 1104
WIRE -1120 1104 -1120 752
WIRE -1120 1104 -1440 1104
WIRE -768 1104 -768 1088
WIRE -768 1104 -1120 1104
WIRE -544 1104 -768 1104
WIRE -1968 1120 -1968 1104
WIRE -800 1120 -800 1088
WIRE -800 1120 -848 1120
WIRE -688 1120 -688 1088
WIRE -688 1120 -704 1120
WIRE -656 1120 -656 1072
WIRE -576 1120 -656 1120
WIRE -224 1120 -224 1072
WIRE -160 1120 -224 1120
WIRE -944 1136 -944 1088
WIRE -944 1136 -1008 1136
WIRE -656 1136 -656 1120
WIRE -576 1136 -576 1120
WIRE -1504 1152 -1648 1152
WIRE -1376 1184 -1376 1040
WIRE -1360 1184 -1376 1184
WIRE -1008 1184 -1008 1136
WIRE -1008 1184 -1056 1184
WIRE -944 1184 -992 1184
WIRE -880 1184 -944 1184
WIRE -32 1184 -80 1184
WIRE 48 1184 -32 1184
WIRE -1648 1200 -1648 1152
WIRE -512 1200 -512 960
WIRE -480 1200 -512 1200
WIRE -160 1200 -160 1120
WIRE -160 1200 -176 1200
WIRE -944 1216 -944 1184
WIRE -848 1216 -848 1184
WIRE -800 1216 -800 1200
WIRE -800 1216 -848 1216
WIRE -800 1232 -800 1216
WIRE 48 1232 48 1184
WIRE -1504 1248 -1504 1152
WIRE -1392 1248 -1392 1072
WIRE -1392 1248 -1504 1248
WIRE -1360 1248 -1392 1248
WIRE -992 1248 -992 1184
WIRE -992 1248 -1056 1248
WIRE -656 1248 -656 1216
WIRE -576 1248 -576 1200
WIRE -576 1248 -656 1248
WIRE -656 1264 -656 1248
WIRE -528 1264 -528 976
WIRE -480 1264 -528 1264
WIRE -80 1264 -80 1184
WIRE -80 1264 -176 1264
WIRE -880 1280 -880 1184
WIRE -1440 1312 -1440 1104
WIRE -1392 1312 -1440 1312
WIRE -1360 1312 -1392 1312
WIRE -1040 1312 -1040 592
WIRE -1040 1312 -1056 1312
WIRE -544 1328 -544 1104
WIRE -512 1328 -544 1328
WIRE -480 1328 -512 1328
WIRE -64 1328 -64 1024
WIRE -64 1328 -176 1328
WIRE -1968 1344 -1968 1184
WIRE -64 1360 -64 1328
WIRE 48 1360 48 1296
WIRE 48 1360 -64 1360
WIRE -1040 1376 -1040 1312
WIRE -880 1376 -880 1344
WIRE -880 1376 -1040 1376
WIRE -1392 1392 -1392 1376
WIRE -1360 1392 -1392 1392
WIRE -1008 1392 -1056 1392
WIRE -944 1392 -944 1360
WIRE -944 1392 -1008 1392
WIRE -704 1392 -704 1120
WIRE -704 1392 -944 1392
WIRE -1392 1408 -1392 1392
WIRE -512 1408 -512 1392
WIRE -480 1408 -512 1408
WIRE -128 1408 -176 1408
WIRE -112 1408 -112 1088
WIRE -112 1408 -128 1408
WIRE -32 1408 -32 1328
WIRE -32 1408 -112 1408
WIRE -848 1424 -960 1424
WIRE -832 1424 -832 928
WIRE -832 1424 -848 1424
WIRE -688 1424 -688 1120
WIRE -688 1424 -704 1424
WIRE -512 1424 -512 1408
WIRE -848 1440 -848 1424
WIRE -704 1440 -704 1424
WIRE 16 1440 -96 1440
WIRE 144 1440 144 592
WIRE 144 1440 16 1440
WIRE -1360 1456 -1536 1456
WIRE -1040 1456 -1056 1456
WIRE -1008 1456 -1040 1456
WIRE 16 1456 16 1440
WIRE -1040 1472 -1040 1456
WIRE -480 1472 -608 1472
WIRE -160 1472 -176 1472
WIRE -128 1472 -160 1472
WIRE -704 1488 -704 1440
WIRE -160 1488 -160 1472
WIRE -1360 1520 -1456 1520
WIRE -960 1520 -960 1504
WIRE -960 1520 -1056 1520
WIRE -1536 1536 -1536 1456
WIRE -1456 1536 -1456 1520
WIRE -480 1536 -528 1536
WIRE -96 1536 -96 1520
WIRE -96 1536 -176 1536
WIRE -608 1552 -608 1472
FLAG 1232 160 0
FLAG 1040 160 0
FLAG 1040 -16 0
FLAG 1232 -16 0
FLAG 1136 160 0
FLAG 1440 80 sec
FLAG 864 80 prim
FLAG -48 -32 Ponte
FLAG -96 -544 vv1
FLAG 96 -528 vcc
FLAG -128 -448 lambda
FLAG -1024 -960 PST
FLAG -240 -512 zero_quinze
FLAG 320 -256 R_S
FLAG 160 -288 S
FLAG 464 176 S
FLAG -272 -144 R_S
FLAG 2048 208 0
FLAG -2096 -1648 quinze_trinta
FLAG -1840 -800 quinze_trinta
FLAG -32 -736 quinze_trinta
FLAG 2064 -176 Vout
FLAG -2096 -1360 0
FLAG -1840 -544 0
FLAG -32 -480 0
FLAG -1968 -592 zero_quinze
FLAG -1696 -240 zero_quinze
FLAG -2144 -1328 zero_quinze
FLAG 768 80 aa
FLAG 3488 288 0
FLAG 3632 320 0
FLAG 2896 464 0
FLAG 3248 528 0
FLAG 4128 544 0
FLAG 3776 480 0
FLAG 3760 672 0
FLAG 2832 672 0
FLAG 3296 112 0
FLAG 3440 560 0
FLAG 4320 96 0
FLAG 3984 64 0
FLAG 3680 608 0
FLAG 2656 544 0
FLAG 2640 336 0
FLAG 2736 128 0
FLAG 3968 -208 Ponte2
FLAG 3600 432 zero_quinze
FLAG 4336 -432 Vout
FLAG 4176 -464 S2
FLAG 3744 -320 Vout
FLAG 2592 -1264 sine
FLAG 2560 -1072 triang
FLAG 2400 -1168 zero_quinze
FLAG 2336 -864 zero_quinze
FLAG 4432 -16 S2
FLAG 2752 -544 triang
FLAG 2752 -736 sine
FLAG 2704 -176 triang
FLAG 2784 -80 sine
FLAG 1632 -688 0
FLAG 1536 -880 0
FLAG 1280 -976 Vout
FLAG 1712 -1024 0
FLAG 2080 -400 0
FLAG 2080 -672 Zero2
FLAG 1280 -464 0
FLAG 1344 -1504 0
FLAG 1632 -1504 0
FLAG 1712 -1280 quinze_trinta
FLAG 1472 -1760 quinze_trinta
FLAG 1232 -1376 zero_quinze
FLAG 2448 304 zero_quinze
FLAG 4432 192 Zero2
FLAG 2448 688 0
FLAG -2704 -1376 0
FLAG -2384 -1408 0
FLAG -2448 -1360 zero_quinze
FLAG -2320 -496 0
FLAG -2224 -832 zero_quinze
FLAG 272 176 0
FLAG -1392 -1056 Sw
FLAG -1280 -1360 zero_quinze
FLAG -1072 -1328 0
FLAG -736 -1712 quinze_trinta
FLAG -3120 -640 0
FLAG -3776 -912 zero_quinze
FLAG -3600 -736 0
FLAG -3424 -1120 quinze_trinta
FLAG -800 1232 0
FLAG -656 1264 0
FLAG -1392 1408 0
FLAG -1040 1472 0
FLAG -160 1488 0
FLAG -512 1424 0
FLAG -528 1616 0
FLAG -1456 1616 0
FLAG -992 1056 0
FLAG -848 1504 0
FLAG -304 1008 0
FLAG -608 1552 0
FLAG -1648 1280 0
FLAG -1552 1072 0
FLAG -704 1440 zero_quinze
FLAG -1824 1104 FF
FLAG -1968 960 zero_quinze
FLAG -1968 1344 0
FLAG -1536 1536 0
FLAG 16 1520 0
FLAG -1520 688 zero_quinze
FLAG -1488 480 zero_quinze
FLAG -3600 -1552 Vout
FLAG -1296 0 vcc
SYMBOL voltage -240 -64 R0
WINDOW 123 0 0 Left 0
WINDOW 39 0 0 Left 0
SYMATTR InstName V1
SYMATTR Value 10
SYMBOL cap -256 -592 R0
SYMATTR InstName C3
SYMATTR Value 0.0051µ
SYMATTR SpiceLine V=50 Irms=0 Rser=0 Lser=0 mfg="Murata" pn="GCM1885C1H512JA16" type="C0G"
SYMBOL res -16 -464 R90
WINDOW 0 0 56 VBottom 2
WINDOW 3 32 56 VTop 2
SYMATTR InstName R3
SYMATTR Value 1.15K
SYMATTR SpiceLine tol=1 pwr=0.1
SYMBOL diode 1776 -112 R180
WINDOW 0 24 64 Left 2
WINDOW 3 24 0 Left 2
SYMATTR InstName D1
SYMATTR Value VS-E5PH7506
SYMBOL diode 1776 176 R180
WINDOW 0 24 64 Left 2
WINDOW 3 24 0 Left 2
SYMATTR InstName D9
SYMATTR Value VS-E5PH7506
SYMBOL diode 1936 176 R180
WINDOW 0 24 64 Left 2
WINDOW 3 24 0 Left 2
SYMATTR InstName D13
SYMATTR Value VS-E5PH7506
SYMBOL g 1040 48 R0
SYMATTR InstName G1
SYMATTR Value 1
SYMBOL g 1232 48 M0
WINDOW 0 -10 9 Right 2
WINDOW 3 -15 96 Right 2
SYMATTR InstName G2
SYMATTR Value {1/N}
SYMBOL g 992 -96 M0
WINDOW 0 -10 10 Right 2
WINDOW 3 -16 104 Right 2
SYMATTR InstName G3
SYMATTR Value 1
SYMBOL g 1280 -96 R0
WINDOW 0 13 18 Left 2
WINDOW 3 12 101 Left 2
SYMATTR InstName G4
SYMATTR Value {1/N}
SYMBOL res 1120 48 R0
SYMATTR InstName R1
SYMATTR Value 1G
SYMBOL res 864 -80 R90
WINDOW 0 0 56 VBottom 2
WINDOW 3 32 56 VTop 2
SYMATTR InstName R2
SYMATTR Value 0
SYMBOL nmos -288 -784 R0
SYMATTR InstName M5
SYMATTR Value BSS145
SYMBOL nmos -432 -752 R180
SYMATTR InstName M7
SYMATTR Value BSS145
SYMBOL OpAmps\\LT318A -32 -528 R0
SYMATTR InstName U1
SYMBOL ind2 -656 -1184 R180
WINDOW 0 36 80 Left 2
WINDOW 3 36 40 Left 2
SYMATTR InstName L5
SYMATTR Value 1m
SYMATTR Type ind
SYMBOL ind2 -656 -1072 R180
WINDOW 0 36 80 Left 2
WINDOW 3 36 40 Left 2
SYMATTR InstName L6
SYMATTR Value 1m
SYMATTR Type ind
SYMBOL ind2 -784 -1136 M180
WINDOW 0 36 80 Left 2
WINDOW 3 36 40 Left 2
SYMATTR InstName L4
SYMATTR Value 1m
SYMATTR Type ind
SYMBOL cap -560 -1280 R0
SYMATTR InstName C18
SYMATTR Value 2.2µ
SYMATTR SpiceLine V=16 Irms=0 Rser=0.007 Lser=584p mfg="Würth Elektronik" pn="885012108014 WCAP-CSGP 1206" type="X5R"
SYMBOL ind 544 -16 R0
SYMATTR InstName L2
SYMATTR Value 10µ
SYMBOL res -2080 -688 R90
WINDOW 0 0 56 VBottom 2
WINDOW 3 32 56 VTop 2
SYMATTR InstName R19
SYMATTR Value 10k
SYMBOL res -1840 -752 R90
WINDOW 0 0 56 VBottom 2
WINDOW 3 32 56 VTop 2
SYMATTR InstName R29
SYMATTR Value 2.94K
SYMATTR SpiceLine tol=1 pwr=0.1
SYMBOL cap -1632 -464 R0
SYMATTR InstName C16
SYMATTR Value 0.033µ
SYMATTR SpiceLine V=16 Irms=0 Rser=0.0546 Lser=715p mfg="Würth Elektronik" pn="885012208028 WCAP-CSGP 1206" type="X7R"
SYMBOL res -1728 -624 R0
SYMATTR InstName R25
SYMATTR Value 1k
SYMATTR SpiceLine tol=1 pwr=0.1
SYMBOL res -1728 -496 R0
SYMATTR InstName R26
SYMATTR Value 400
SYMATTR SpiceLine tol=1 pwr=0.1
SYMBOL npn -1392 -336 R0
SYMATTR InstName Q1
SYMATTR Value 2SC4618
SYMBOL res -2160 -1472 R90
WINDOW 0 0 56 VBottom 2
WINDOW 3 32 56 VTop 2
SYMATTR InstName R30
SYMATTR Value 10k
SYMBOL res -2016 -1568 R90
WINDOW 0 0 56 VBottom 2
WINDOW 3 32 56 VTop 2
SYMATTR InstName R32
SYMATTR Value 10k
SYMBOL res -1536 -336 R0
SYMATTR InstName R33
SYMATTR Value 1k
SYMBOL res -1312 -608 R0
SYMATTR InstName R34
SYMATTR Value 10k
SYMBOL cap -528 -1168 R0
SYMATTR InstName C2
SYMATTR Value 2.2µ
SYMATTR SpiceLine V=16 Irms=0 Rser=0.007 Lser=584p mfg="Würth Elektronik" pn="885012108014 WCAP-CSGP 1206" type="X5R"
SYMBOL nmos -32 -144 R0
SYMATTR InstName M6
SYMATTR Value IPT015N10N5
SYMBOL nmos -96 -144 R0
SYMATTR InstName M1
SYMATTR Value IPT015N10N5
SYMBOL nmos 128 -144 R0
SYMATTR InstName M2
SYMATTR Value IPT015N10N5
SYMBOL nmos 208 -144 R0
SYMATTR InstName M3
SYMATTR Value IPT015N10N5
SYMBOL nmos 128 32 R0
SYMATTR InstName M4
SYMATTR Value IPT015N10N5
SYMBOL nmos 224 16 R0
SYMATTR InstName M8
SYMATTR Value IPT015N10N5
SYMBOL nmos -16 32 R0
SYMATTR InstName M9
SYMATTR Value IPT015N10N5
SYMBOL nmos -96 32 R0
SYMATTR InstName M10
SYMATTR Value IPT015N10N5
SYMBOL OpAmps\\LT318A -1840 -608 R0
SYMATTR InstName U5
SYMBOL OpAmps\\LT318A -2096 -1440 R0
SYMATTR InstName U8
SYMBOL ind -128 -160 R90
WINDOW 0 5 56 VBottom 2
WINDOW 3 32 56 VTop 2
SYMATTR InstName L7
SYMATTR Value 500n